this is my first recipe.
I am so nervous.
Ok, here it goes.
1. Collect all the ingedients.
2. Follow the instructions written on your recipe book.
3. Cook.


or, order online get home delivery. :)
new line.
